/*---------------------------------------------------------------------------*\
| =========                 |                                                 |
| \\      /  F ield         | OpenFOAM: The Open Source CFD Toolbox           |
|  \\    /   O peration     | Version:  4.x                                   |
|   \\  /    A nd           | Web:      www.OpenFOAM.org                      |
|    \\/     M anipulation  |                                                 |
\*---------------------------------------------------------------------------*/
FoamFile
{
    version     2.0;
    format      ascii;
    class       dictionary;
    object      blockMeshDict;
}
// * * * * * * * * * * * * * * * * * * * * * * * * * * * * * * * * * * * * * //

convertToMeters 1e-03;

vertices
(
    // Back
    (0   0  -0.1)   // 0
    (1   0  -0.1)   // 1
    (4   0  -0.1)   // 2
    (5   0  -0.1)   // 3
    (0   1  -0.1)   // 4
    (1   1  -0.1)   // 5
    (4   1  -0.1)   // 6
    (5   1  -0.1)   // 7
    (1   2  -0.1)   // 8
    (4   2  -0.1)   // 9
    // Front
    (0   0   0.1)   // 10
    (1   0   0.1)   // 11
    (4   0   0.1)   // 12
    (5   0   0.1)   // 13
    (0   1   0.1)   // 14
    (1   1   0.1)   // 15
    (4   1   0.1)   // 16
    (5   1   0.1)   // 17
    (1   2   0.1)   // 18
    (4   2   0.1)   // 19
);

blocks
(
   	hex (0 1 5 4 10 11 15 14) (40  40 1) simpleGrading (1 1 1)
   	hex (1 2 6 5 11 12 16 15) (120 40 1) simpleGrading (1 1 1)
   	hex (2 3 7 6 12 13 17 16) (40  40 1) simpleGrading (1 1 1)
   	hex (5 6 9 8 15 16 19 18) (120 40 1) simpleGrading (1 1 1)
);

edges
(
);

boundary
(
   	inlet
   	{
        type patch;
      	faces
        (
            (0 4 14 10)
        );
    }
    outlet
    {
        type patch;
        faces
        (
            (3 7 17 13)
        );
    }
    wall
    {
		type wall;
		faces
		(
			(5  4 14 15)
			(8  5 18 15)
			(9  8 18 19)
			(6  9 19 16)
			(7  6 16 17)
		);
	}
    midPlane
    {
		type patch;
		faces
		(
			(0 1 11 10)
			(1 2 12 11)
			(2 3 13 12)
		);
    }
	frontAndBack
	{
		type empty;
		faces
		(
			// Back
			(0 4 5 1)
			(1 5 6 2)
			(2 6 7 3)
			(5 8 9 6)
			// Front
			(10 11 15 14)
			(11 12 16 15)
			(12 13 17 16)
			(15 16 19 18)
		);
	}
);

mergePatchPairs
(
);

// ************************************************************************* //
