/*---------------------------------------------------------------------------*\
  =========                 |
  \\      /  F ield         | OpenFOAM: The Open Source CFD Toolbox
   \\    /   O peration     | Website:  https://openfoam.org
    \\  /    A nd           | Version:  8
     \\/     M anipulation  |
\*---------------------------------------------------------------------------*/
FoamFile
{
    version     2.0;
    format      ascii;
    class       volVectorField;
    location    "0";
    object      U;
}
// * * * * * * * * * * * * * * * * * * * * * * * * * * * * * * * * * * * * * //

dimensions      [0 1 -1 0 0 0 0];

internalField   uniform (0 0 0);

boundaryField
{
    inlet
    {
        // type            fixedValue;
        // value           uniform (4.38e-4 0 0);

        type            codedFixedValue;
        value           uniform (4.38e-4 0 0);
        name            fullyDeveloped;
        code            #{
            // Define average velocity
            const scalar U_avg = 4.38e-4;
            // Define height of the channel
            const scalar h = 0.8e-3;
            // Define unit direction vector
            const vector n (1, 0, 0);
            const vector y (0, 1, 0);

            // Calculate boundary parch center
            const vector ctr (0, 0, 0);

            // Read boundary patch face centre coordinates
            const vectorField& Cf = this->patch().Cf();

            const scalarField coord = (((Cf - ctr) & y) / h);

            operator == (n * 2 * U_avg * (1 - sqr(coord)));
        #};
    }
    outlet
    {
        type            zeroGradient;
    }
    wall
    {
        type            fixedValue;
        value           uniform (0 0 0);
    }
    midPlane
    {
        type            zeroGradient;
    }
    frontAndBack
    {
        type            empty;
    }
}


// ************************************************************************* //
// vim:ft=foam
